networks/opendss/CKT_1444_16267.dss
! OpenDSS script generated from multiconductor network
Clear

New Circuit.mc_network basekv=12.0 pu=1.000000 angle=0.00 frequency=60.0 phases=3 Mvasc3=143993 Mvasc1=47997.6
~ bus1=-8888882190800.1.2.3

! Line codes
New LineCode.1/0_CLP_1PH_12KV_1 nphases=1 units=km Rmatrix=[ 0.001984 ] Xmatrix=[ 0.000606 ] Cmatrix=[ 0 ]
New LineCode.1000_CLP_3PH_12KV_3 nphases=3 units=km Rmatrix=[ 0.056149 | 0 0.056149 | 0 0 0.056149 ] Xmatrix=[ 0.084993 | 0 0.084993 | 0 0 0.084993 ] Cmatrix=[ 0 | 0 0 | 0 0 0 ]
New LineCode.1/0_CLP_3PH_12KV_3 nphases=3 units=km Rmatrix=[ 0.154943 | 0 0.154943 | 0 0 0.154943 ] Xmatrix=[ 0.047358 | 0 0.047358 | 0 0 0.047358 ] Cmatrix=[ 0 | 0 0 | 0 0 0 ]
New LineCode.750_CLP_3PH_12KV_3 nphases=3 units=km Rmatrix=[ 0.000617 | 0 0.000617 | 0 0 0.000617 ] Xmatrix=[ 0.000758 | 0 0.000758 | 0 0 0.000758 ] Cmatrix=[ 0 | 0 0 | 0 0 0 ]
New LineCode.2_CLP_2PH_12KV_2 nphases=2 units=km Rmatrix=[ 0.042967 | 0 0.042967 ] Xmatrix=[ 0.009057 | 0 0.009057 ] Cmatrix=[ 0 | 0 0 ]
New LineCode.750_JCN_3PH_12KV_3 nphases=3 units=km Rmatrix=[ 0.009228 | 0 0.009228 | 0 0 0.009228 ] Xmatrix=[ 0.011334 | 0 0.011334 | 0 0 0.011334 ] Cmatrix=[ 0 | 0 0 | 0 0 0 ]
New LineCode.653_ACSR_3PH_653_ACSR_N_12KV_4 nphases=4 units=km Rmatrix=[ 0.003105 | 0 0.003105 | 0 0 0.003105 | 0 0 0 0.003105 ] Xmatrix=[ 0.010556 | 0 0.010556 | 0 0 0.010556 | 0 0 0 0.010556 ] Cmatrix=[ 0 | 0 0 | 0 0 0 | 0 0 0 0 ]
New LineCode.336_ACSR_2PH_12KV_2 nphases=2 units=km Rmatrix=[ 0.00632 | 0 0.00632 ] Xmatrix=[ 0.014152 | 0 0.014152 ] Cmatrix=[ 0 | 0 0 ]
New LineCode.336_ACSR_3PH_336_ACSR_N_12KV_4 nphases=4 units=km Rmatrix=[ 0.005918 | 0 0.005918 | 0 0 0.005918 | 0 0 0 0.005918 ] Xmatrix=[ 0.011801 | 0 0.011801 | 0 0 0.011801 | 0 0 0 0.011801 ] Cmatrix=[ 0 | 0 0 | 0 0 0 | 0 0 0 0 ]
New LineCode.1/0_ACSR_2PH_12KV_2 nphases=2 units=km Rmatrix=[ 0.024348 | 0 0.024348 ] Xmatrix=[ 0.019386 | 0 0.019386 ] Cmatrix=[ 0 | 0 0 ]
New LineCode.4_CU_3PH_12KV_3 nphases=3 units=km Rmatrix=[ 0.003745 | 0 0.003745 | 0 0 0.003745 ] Xmatrix=[ 0.002041 | 0 0.002041 | 0 0 0.002041 ] Cmatrix=[ 0 | 0 0 | 0 0 0 ]
New LineCode.4_ACSR_3PH_12KV_3 nphases=3 units=km Rmatrix=[ 0.059258 | 0 0.059258 | 0 0 0.059258 ] Xmatrix=[ 0.021744 | 0 0.021744 | 0 0 0.021744 ] Cmatrix=[ 0 | 0 0 | 0 0 0 ]
New LineCode.1/0_ACSR_3PH_12KV_3 nphases=3 units=km Rmatrix=[ 0.027101 | 0 0.027101 | 0 0 0.027101 ] Xmatrix=[ 0.021577 | 0 0.021577 | 0 0 0.021577 ] Cmatrix=[ 0 | 0 0 | 0 0 0 ]
New LineCode.6_CU_2PH_12KV_2 nphases=2 units=km Rmatrix=[ 0.042359 | 0 0.042359 ] Xmatrix=[ 0.015015 | 0 0.015015 ] Cmatrix=[ 0 | 0 0 ]
New LineCode.6_CU_3PH_12KV_3 nphases=3 units=km Rmatrix=[ 0.201628 | 0 0.201628 | 0 0 0.201628 ] Xmatrix=[ 0.071468 | 0 0.071468 | 0 0 0.071468 ] Cmatrix=[ 0 | 0 0 | 0 0 0 ]
New LineCode.4_ACSR_2PH_12KV_2 nphases=2 units=km Rmatrix=[ 0.111062 | 0 0.111062 ] Xmatrix=[ 0.040754 | 0 0.040754 ] Cmatrix=[ 0 | 0 0 ]
New LineCode.2/0_CU_3PH_12KV_3 nphases=3 units=km Rmatrix=[ 0.014336 | 0 0.014336 | 0 0 0.014336 ] Xmatrix=[ 0.022111 | 0 0.022111 | 0 0 0.022111 ] Cmatrix=[ 0 | 0 0 | 0 0 0 ]
New LineCode.2_CU_3PH_12KV_3 nphases=3 units=km Rmatrix=[ 1e-05 | 0 1e-05 | 0 0 1e-05 ] Xmatrix=[ 1e-05 | 0 1e-05 | 0 0 1e-05 ] Cmatrix=[ 0 | 0 0 | 0 0 0 ]
New LineCode.2_CU_2PH_12KV_2 nphases=2 units=km Rmatrix=[ 1e-05 | 0 1e-05 ] Xmatrix=[ 1e-05 | 0 1e-05 ] Cmatrix=[ 0 | 0 0 ]
New LineCode.2_CLP_3PH_12KV_3 nphases=3 units=km Rmatrix=[ 0.056997 | 0 0.056997 | 0 0 0.056997 ] Xmatrix=[ 0.012014 | 0 0.012014 | 0 0 0.012014 ] Cmatrix=[ 0 | 0 0 | 0 0 0 ]
New LineCode.1/0_JCN_3PH_12KV_3 nphases=3 units=km Rmatrix=[ 0.012356 | 0 0.012356 | 0 0 0.012356 ] Xmatrix=[ 0.003777 | 0 0.003777 | 0 0 0.003777 ] Cmatrix=[ 0 | 0 0 | 0 0 0 ]
New LineCode.1/0_JCN_2PH_12KV_2 nphases=2 units=km Rmatrix=[ 0.034322 | 0 0.034322 ] Xmatrix=[ 0.010491 | 0 0.010491 ] Cmatrix=[ 0 | 0 0 ]
New LineCode.1/0_CLP_2PH_12KV_2 nphases=2 units=km Rmatrix=[ 0.001191 | 0 0.001191 ] Xmatrix=[ 0.000364 | 0 0.000364 ] Cmatrix=[ 0 | 0 0 ]
New LineCode.6_CU_3PH_12KV_2 nphases=2 units=km Rmatrix=[ 0.201628 | 0 0.201628 ] Xmatrix=[ 0.071468 | 0 0.071468 ] Cmatrix=[ 0 | 0 0 ]
New LineCode.1/0_AL_2PH_12KV_2 nphases=2 units=km Rmatrix=[ 0.037324 | 0 0.037324 ] Xmatrix=[ 0.011408 | 0 0.011408 ] Cmatrix=[ 0 | 0 0 ]
New LineCode.1/0_ATW_3PH_12KV_3 nphases=3 units=km Rmatrix=[ 1e-05 | 0 1e-05 | 0 0 1e-05 ] Xmatrix=[ 1e-05 | 0 1e-05 | 0 0 1e-05 ] Cmatrix=[ 0 | 0 0 | 0 0 0 ]
New LineCode.1/0_ATW_2PH_12KV_2 nphases=2 units=km Rmatrix=[ 1e-05 | 0 1e-05 ] Xmatrix=[ 1e-05 | 0 1e-05 ] Cmatrix=[ 0 | 0 0 ]
New LineCode.336_ACSR_3PH_12KV_3 nphases=3 units=km Rmatrix=[ 0.001103 | 0 0.001103 | 0 0 0.001103 ] Xmatrix=[ 0.002469 | 0 0.002469 | 0 0 0.002469 ] Cmatrix=[ 0 | 0 0 | 0 0 0 ]
New LineCode.653_ACSR_3PH_12KV_3 nphases=3 units=km Rmatrix=[ 0.000954 | 0 0.000954 | 0 0 0.000954 ] Xmatrix=[ 0.003705 | 0 0.003705 | 0 0 0.003705 ] Cmatrix=[ 0 | 0 0 | 0 0 0 ]
New LineCode.653_ACSR_2PH_12KV_2 nphases=2 units=km Rmatrix=[ 0.004036 | 0 0.004036 ] Xmatrix=[ 0.015667 | 0 0.015667 ] Cmatrix=[ 0 | 0 0 ]
New LineCode.1/0_ACSR_3PH_1/0_ACSR_N_12KV_4 nphases=4 units=km Rmatrix=[ 0.058456 | 0 0.058456 | 0 0 0.058456 | 0 0 0 0.058456 ] Xmatrix=[ 0.042245 | 0 0.042245 | 0 0 0.042245 | 0 0 0 0.042245 ] Cmatrix=[ 0 | 0 0 | 0 0 0 | 0 0 0 0 ]
New LineCode.4_CU_2PH_12KV_2 nphases=2 units=km Rmatrix=[ 0.001991 | 0 0.001991 ] Xmatrix=[ 0.001085 | 0 0.001085 ] Cmatrix=[ 0 | 0 0 ]
New LineCode.350_CLP_3PH_12KV_3 nphases=3 units=km Rmatrix=[ 0.034678 | 0 0.034678 | 0 0 0.034678 ] Xmatrix=[ 0.026348 | 0 0.026348 | 0 0 0.026348 ] Cmatrix=[ 0 | 0 0 | 0 0 0 ]
New LineCode.2_AL_2PH_12KV_2 nphases=2 units=km Rmatrix=[ 0.097982 | 0 0.097982 ] Xmatrix=[ 0.020653 | 0 0.020653 ] Cmatrix=[ 0 | 0 0 ]
New LineCode.2_CLP_1PH_12KV_1 nphases=1 units=km Rmatrix=[ 0.035133 ] Xmatrix=[ 0.007405 ] Cmatrix=[ 0 ]
New LineCode.2_JCN_C_2PH_12KV_2 nphases=2 units=km Rmatrix=[ 1e-05 | 0 1e-05 ] Xmatrix=[ 1e-05 | 0 1e-05 ] Cmatrix=[ 0 | 0 0 ]

! Lines
New Line.GS5700-3$V5202166 phases=1 Bus1=148983787.3 Bus2=49838884.3 LineCode=1/0_CLP_1PH_12KV_1 Length=0.000619 units=km
New Line.890720E$GS5700-5 phases=3 Bus1=148983803.1.2.3 Bus2=55273720.1.2.3 LineCode=1000_CLP_3PH_12KV_3 Length=0.51545 units=km
New Line.771935E$165017316 phases=3 Bus1=55325434.1.2.3 Bus2=165017318.1.2.3 LineCode=1/0_CLP_3PH_12KV_3 Length=0.215167 units=km
New Line.165017316$P5431036-1 phases=3 Bus1=165017319.1.2.3 Bus2=55305634.1.2.3 LineCode=1/0_CLP_3PH_12KV_3 Length=0.002302 units=km
New Line.771937E$PME1256-2 phases=3 Bus1=55273775.1.2.3 Bus2=55305706.1.2.3 LineCode=1000_CLP_3PH_12KV_3 Length=0.187047 units=km
New Line.ND55274409$PME1256-3 phases=3 Bus1=55305688.1.2.3 Bus2=55274387.1.2.3 LineCode=1000_CLP_3PH_12KV_3 Length=0.012633 units=km
New Line.GS4497-6$2205649E phases=3 Bus1=55273996.1.2.3 Bus2=165162448.1.2.3 LineCode=750_CLP_3PH_12KV_3 Length=0.033508 units=km
New Line.V5426823$GS4497-5 phases=3 Bus1=165162440.1.2.3 Bus2=55327274.1.2.3 LineCode=1/0_CLP_3PH_12KV_3 Length=0.003077 units=km
New Line.GS4497-4$P5426828-1 phases=2 Bus1=165162432.2.3 Bus2=55276543.2.3 LineCode=2_CLP_2PH_12KV_2 Length=0.184359 units=km
New Line.GS4497-3$P5439015-1 phases=3 Bus1=165162416.1.2.3 Bus2=55326569.1.2.3 LineCode=1/0_CLP_3PH_12KV_3 Length=0.072286 units=km
New Line.GS4497-2$4152471E phases=3 Bus1=165162408.1.2.3 Bus2=55276510.1.2.3 LineCode=750_JCN_3PH_12KV_3 Length=0.075087 units=km
New Line.GS4497-1$V5426830 phases=3 Bus1=165162424.1.2.3 Bus2=55327270.1.2.3 LineCode=750_CLP_3PH_12KV_3 Length=0.340134 units=km
New Line.V5426830$ND55349899 phases=3 Bus1=55327270.1.2.3 Bus2=55349899.1.2.3 LineCode=750_CLP_3PH_12KV_3 Length=0.005764 units=km
New Line.ND55349899$P5426831-1 phases=3 Bus1=55349899.1.2.3 Bus2=55276591.1.2.3 LineCode=1/0_CLP_3PH_12KV_3 Length=0.039934 units=km
New Line.ND55349899$ND55350318 phases=3 Bus1=55349899.1.2.3 Bus2=55350318.1.2.3 LineCode=750_CLP_3PH_12KV_3 Length=0.008768 units=km
New Line.ND55350318$GS4496-4 phases=3 Bus1=55350318.1.2.3 Bus2=227651732.1.2.3 LineCode=750_CLP_3PH_12KV_3 Length=0.192196 units=km
New Line.ND55350318$P5439014-1 phases=3 Bus1=55350318.1.2.3 Bus2=55324529.1.2.3 LineCode=1/0_CLP_3PH_12KV_3 Length=0.117891 units=km
New Line.890720E$ND101820699 phases=4 Bus1=55273719.0.1.2.3 Bus2=101820699.0.1.2.3 LineCode=653_ACSR_3PH_653_ACSR_N_12KV_4 Length=0.020815 units=km
New Line.BF06171$ND101820699 phases=2 Bus1=101820699.2.3 Bus2=185124667.2.3 LineCode=336_ACSR_2PH_12KV_2 Length=0.033888 units=km
New Line.ND185124753$ND101820699 phases=4 Bus1=101820699.0.1.2.3 Bus2=185124753.0.1.2.3 LineCode=653_ACSR_3PH_653_ACSR_N_12KV_4 Length=0.02279 units=km
New Line.ND101820699$PS0116 phases=4 Bus1=101820699.0.1.2.3 Bus2=35105015.0.1.2.3 LineCode=653_ACSR_3PH_653_ACSR_N_12KV_4 Length=0.020815 units=km
New Line.771932E$ND185124753 phases=4 Bus1=185124753.0.1.2.3 Bus2=101820783.0.1.2.3 LineCode=653_ACSR_3PH_653_ACSR_N_12KV_4 Length=0.002916 units=km
New Line.890721E$BF06171 phases=2 Bus1=185124666.2.3 Bus2=105898431.2.3 LineCode=336_ACSR_2PH_12KV_2 Length=0.033888 units=km
New Line.771932E$ND55327862 phases=4 Bus1=101820783.0.1.2.3 Bus2=55327862.0.1.2.3 LineCode=336_ACSR_3PH_336_ACSR_N_12KV_4 Length=0.025372 units=km
New Line.ND55327862$771934E phases=4 Bus1=55327862.0.1.2.3 Bus2=101820737.0.1.2.3 LineCode=336_ACSR_3PH_336_ACSR_N_12KV_4 Length=0.055754 units=km
New Line.890721E$ND185124635 phases=2 Bus1=105898431.2.3 Bus2=185124635.2.3 LineCode=1/0_ACSR_2PH_12KV_2 Length=0.056966 units=km
New Line.1044103E$ND55327862 phases=3 Bus1=55327862.1.2.3 Bus2=55326819.1.2.3 LineCode=4_CU_3PH_12KV_3 Length=0.034063 units=km
New Line.ND185124635$890722E phases=2 Bus1=185124635.2.3 Bus2=49285616.2.3 LineCode=1/0_ACSR_2PH_12KV_2 Length=0.103482 units=km
New Line.890732E$ND185124635 phases=2 Bus1=185124635.2.3 Bus2=49305449.2.3 LineCode=1/0_ACSR_2PH_12KV_2 Length=0.019815 units=km
New Line.771934E$ND55349800 phases=4 Bus1=101820737.0.1.2.3 Bus2=55349800.0.1.2.3 LineCode=336_ACSR_3PH_336_ACSR_N_12KV_4 Length=0.046062 units=km
New Line.890732E$890730E phases=2 Bus1=49305449.2.3 Bus2=49285641.2.3 LineCode=1/0_ACSR_2PH_12KV_2 Length=0.157558 units=km
New Line.890722E$ND49306454 phases=2 Bus1=49285616.2.3 Bus2=49306454.2.3 LineCode=1/0_ACSR_2PH_12KV_2 Length=0.051958 units=km
New Line.1044103E$1362566E phases=3 Bus1=55326820.1.2.3 Bus2=55273766.1.2.3 LineCode=4_ACSR_3PH_12KV_3 Length=0.038455 units=km
New Line.ND55349800$771936E phases=4 Bus1=55349800.0.1.2.3 Bus2=55273956.0.1.2.3 LineCode=336_ACSR_3PH_336_ACSR_N_12KV_4 Length=0.060387 units=km
New Line.ND55349800$771935E phases=3 Bus1=55349800.1.2.3 Bus2=55325433.1.2.3 LineCode=1/0_ACSR_3PH_12KV_3 Length=0.060387 units=km
New Line.ND49306454$890726E phases=2 Bus1=49306454.2.3 Bus2=49285541.2.3 LineCode=1/0_ACSR_2PH_12KV_2 Length=0.017272 units=km
New Line.ND49306454$4678062E phases=2 Bus1=49306454.2.3 Bus2=49304783.2.3 LineCode=1/0_ACSR_2PH_12KV_2 Length=0.079954 units=km
New Line.771936E$ND55350469 phases=4 Bus1=55273956.0.1.2.3 Bus2=55350469.0.1.2.3 LineCode=336_ACSR_3PH_336_ACSR_N_12KV_4 Length=0.059932 units=km
New Line.4678062E$973293E phases=2 Bus1=49304783.2.3 Bus2=49285516.2.3 LineCode=1/0_ACSR_2PH_12KV_2 Length=0.163466 units=km
New Line.890726E$890728E phases=2 Bus1=49285541.2.3 Bus2=49285566.2.3 LineCode=1/0_ACSR_2PH_12KV_2 Length=0.099292 units=km
New Line.ND55350469$771937E phases=3 Bus1=55350469.1.2.3 Bus2=55273774.1.2.3 LineCode=4_CU_3PH_12KV_3 Length=0.051394 units=km
New Line.ND55350469$ND55328123 phases=4 Bus1=55350469.0.1.2.3 Bus2=55328123.0.1.2.3 LineCode=336_ACSR_3PH_336_ACSR_N_12KV_4 Length=0.051394 units=km
New Line.ND55328123$ND185629941 phases=4 Bus1=55328123.0.1.2.3 Bus2=185629941.0.1.2.3 LineCode=653_ACSR_3PH_653_ACSR_N_12KV_4 Length=0.048316 units=km
New Line.890728E$935717E phases=2 Bus1=49285566.2.3 Bus2=49285591.2.3 LineCode=1/0_ACSR_2PH_12KV_2 Length=0.199957 units=km
New Line.973293E$973291E phases=2 Bus1=49285516.2.3 Bus2=49305137.2.3 LineCode=1/0_ACSR_2PH_12KV_2 Length=0.127964 units=km
New Line.ND55328123$935721E phases=2 Bus1=55328123.2.3 Bus2=55325975.2.3 LineCode=6_CU_2PH_12KV_2 Length=0.03741 units=km
New Line.BF06172$ND185629941 phases=2 Bus1=185629941.1.3 Bus2=215713553.1.3 LineCode=1/0_ACSR_2PH_12KV_2 Length=0.003228 units=km
New Line.973291E$961417E phases=2 Bus1=49305137.2.3 Bus2=49285491.2.3 LineCode=1/0_ACSR_2PH_12KV_2 Length=0.035051 units=km
New Line.935721E$935720E phases=2 Bus1=55325975.2.3 Bus2=55273929.2.3 LineCode=6_CU_2PH_12KV_2 Length=0.086444 units=km
New Line.ND55327940$ND185629941 phases=4 Bus1=185629941.0.1.2.3 Bus2=55327940.0.1.2.3 LineCode=653_ACSR_3PH_653_ACSR_N_12KV_4 Length=0.053649 units=km
New Line.ND55327940$771941E phases=4 Bus1=55327940.0.1.2.3 Bus2=163078248.0.1.2.3 LineCode=653_ACSR_3PH_653_ACSR_N_12KV_4 Length=0.056134 units=km
New Line.961417E$961420E phases=2 Bus1=49285491.2.3 Bus2=49285466.2.3 LineCode=1/0_ACSR_2PH_12KV_2 Length=0.106041 units=km
New Line.ND55327940$741943E phases=3 Bus1=55327940.1.2.3 Bus2=55324442.1.2.3 LineCode=1/0_ACSR_3PH_12KV_3 Length=0.014292 units=km
New Line.961420E$961422E phases=2 Bus1=49285466.2.3 Bus2=49285441.2.3 LineCode=1/0_ACSR_2PH_12KV_2 Length=0.070688 units=km
New Line.ND299257465$2280949E phases=3 Bus1=299257465.1.2.3 Bus2=49285803.1.2.3 LineCode=1/0_ACSR_3PH_12KV_3 Length=0.027627 units=km
New Line.935712E$BF06172 phases=2 Bus1=215713552.1.3 Bus2=49304908.1.3 LineCode=1/0_ACSR_2PH_12KV_2 Length=0.077957 units=km
New Line.771941E$ND55350005 phases=4 Bus1=163078248.0.1.2.3 Bus2=55350005.0.1.2.3 LineCode=653_ACSR_3PH_653_ACSR_N_12KV_4 Length=0.030392 units=km
New Line.ND55350158$741943E phases=3 Bus1=55324442.1.2.3 Bus2=55350158.1.2.3 LineCode=1/0_ACSR_3PH_12KV_3 Length=0.077482 units=km
New Line.ND55350005$RCS7811 phases=4 Bus1=55350005.0.1.2.3 Bus2=237991749.0.1.2.3 LineCode=653_ACSR_3PH_653_ACSR_N_12KV_4 Length=0.050039 units=km
New Line.935712E$935713E phases=2 Bus1=49304908.1.3 Bus2=49285778.1.3 LineCode=1/0_ACSR_2PH_12KV_2 Length=0.073539 units=km
New Line.2280949E$1659734E phases=2 Bus1=49285803.2.3 Bus2=49305012.2.3 LineCode=1/0_ACSR_2PH_12KV_2 Length=0.068074 units=km
New Line.ND55350158$741946E phases=3 Bus1=55350158.1.2.3 Bus2=55273904.1.2.3 LineCode=1/0_ACSR_3PH_12KV_3 Length=0.040688 units=km
New Line.ND55350005$771942 phases=3 Bus1=55350005.1.2.3 Bus2=55305620.1.2.3 LineCode=4_CU_3PH_12KV_3 Length=0.030392 units=km
New Line.935713E$935714E phases=2 Bus1=49285778.1.3 Bus2=49285012.1.3 LineCode=1/0_ACSR_2PH_12KV_2 Length=0.029232 units=km
New Line.1659734E$4152075E phases=2 Bus1=49305012.2.3 Bus2=49304987.2.3 LineCode=1/0_ACSR_2PH_12KV_2 Length=0.024801 units=km
New Line.ND55327795$1719845E phases=3 Bus1=55327795.1.2.3 Bus2=55273854.1.2.3 LineCode=6_CU_3PH_12KV_3 Length=0.044196 units=km
New Line.741946E$ND55328093 phases=2 Bus1=55273904.1.3 Bus2=55328093.1.3 LineCode=1/0_ACSR_2PH_12KV_2 Length=0.036056 units=km
New Line.4680838E$1171553E phases=2 Bus1=55273879.1.2 Bus2=55273829.1.2 LineCode=6_CU_2PH_12KV_2 Length=0.161533 units=km
New Line.ND55328093$741949E phases=2 Bus1=55328093.1.3 Bus2=55324776.1.3 LineCode=1/0_ACSR_2PH_12KV_2 Length=0.074254 units=km
New Line.RCS7811$ND55350663 phases=4 Bus1=237991748.0.1.2.3 Bus2=55350663.0.1.2.3 LineCode=653_ACSR_3PH_653_ACSR_N_12KV_4 Length=0.023365 units=km
New Line.ND55350663$2205649E phases=4 Bus1=55350663.0.1.2.3 Bus2=55273995.0.1.2.3 LineCode=653_ACSR_3PH_653_ACSR_N_12KV_4 Length=0.026977 units=km
New Line.ND55350663$953247E phases=2 Bus1=55350663.2.3 Bus2=55274067.2.3 LineCode=4_ACSR_2PH_12KV_2 Length=0.081236 units=km
New Line.ND55350663$1108448E phases=3 Bus1=55350663.1.2.3 Bus2=55325488.1.2.3 LineCode=4_CU_3PH_12KV_3 Length=0.064488 units=km
New Line.953247E$953248E phases=2 Bus1=55274067.2.3 Bus2=55274042.2.3 LineCode=4_ACSR_2PH_12KV_2 Length=0.053641 units=km
New Line.1108448E$1108449E phases=3 Bus1=55325488.1.2.3 Bus2=55325463.1.2.3 LineCode=4_CU_3PH_12KV_3 Length=0.014902 units=km
New Line.PS0051$4152471E phases=3 Bus1=55276509.1.2.3 Bus2=55326889.1.2.3 LineCode=2/0_CU_3PH_12KV_3 Length=0.004035 units=km
New Line.PS0051$ND69709513 phases=3 Bus1=55326888.1.2.3 Bus2=69709513.1.2.3 LineCode=2/0_CU_3PH_12KV_3 Length=0.06634 units=km
New Line.ND69709513$2060229E phases=3 Bus1=69709513.1.2.3 Bus2=55274179.1.2.3 LineCode=4_CU_3PH_12KV_3 Length=0.002944 units=km
New Line.ND69709513$ND55327933 phases=3 Bus1=69709513.1.2.3 Bus2=55327933.1.2.3 LineCode=2/0_CU_3PH_12KV_3 Length=0.052012 units=km
New Line.ND55327933$ND185630118 phases=3 Bus1=55327933.1.2.3 Bus2=185630118.1.2.3 LineCode=2/0_CU_3PH_12KV_3 Length=0.009009 units=km
New Line.771942$J930-2P phases=3 Bus1=55305621.1.2.3 Bus2=55306527.1.2.3 LineCode=2_CU_3PH_12KV_3 Length=0.005385 units=km
New Line.J930-1P$210032464 phases=3 Bus1=55306511.1.2.3 Bus2=210032466.1.2.3 LineCode=2_CU_3PH_12KV_3 Length=0.129556 units=km
New Line.J930-3P$B5156361-1 phases=2 Bus1=55306519.1.2 Bus2=55324229.1.2 LineCode=2_CU_2PH_12KV_2 Length=0.094656 units=km
New Line.210032464$P5318931-A phases=3 Bus1=210032467.1.2.3 Bus2=151315695.1.2.3 LineCode=2_CU_3PH_12KV_3 Length=0.002864 units=km
New Line.P5318931-B$210032437 phases=2 Bus1=151315678.1.2 Bus2=210032440.1.2 LineCode=2_CU_2PH_12KV_2 Length=0.010452 units=km
New Line.210032437$P5318932-1 phases=2 Bus1=210032439.1.2 Bus2=167186896.1.2 LineCode=2_CU_2PH_12KV_2 Length=0.017842 units=km
New Line.ND185630118$BF07948 phases=3 Bus1=185630118.1.2.3 Bus2=240628800.1.2.3 LineCode=1/0_ACSR_3PH_12KV_3 Length=0.00351 units=km
New Line.ND227651878$GS4496-3 phases=3 Bus1=227651724.1.2.3 Bus2=227651878.1.2.3 LineCode=2_CLP_3PH_12KV_3 Length=0.084055 units=km
New Line.GS4496-2$ND227651998 phases=3 Bus1=227651708.1.2.3 Bus2=227651998.1.2.3 LineCode=1/0_JCN_3PH_12KV_3 Length=0.017595 units=km
New Line.BF07948$1497055E phases=3 Bus1=240628801.1.2.3 Bus2=49303939.1.2.3 LineCode=1/0_ACSR_3PH_12KV_3 Length=0.033382 units=km
New Line.P5202019-1$ND227651878 phases=3 Bus1=227651878.1.2.3 Bus2=55276639.1.2.3 LineCode=2_CLP_3PH_12KV_3 Length=0.053046 units=km
New Line.P5380719-1$ND227651878 phases=3 Bus1=227651878.1.2.3 Bus2=69709335.1.2.3 LineCode=2_CLP_3PH_12KV_3 Length=0.040251 units=km
New Line.ND227651998$B5703282-1 phases=2 Bus1=227651998.1.2 Bus2=227651910.1.2 LineCode=1/0_JCN_2PH_12KV_2 Length=0.048606 units=km
New Line.B5139134-2$ND141139839 phases=2 Bus1=141139839.1.3 Bus2=55274327.1.3 LineCode=2_CLP_2PH_12KV_2 Length=0.007749 units=km
New Line.V5426835$ND227651998 phases=3 Bus1=227651998.1.2.3 Bus2=55327266.1.2.3 LineCode=1/0_CLP_3PH_12KV_3 Length=0.011545 units=km
New Line.ND55327851$GS4496-1 phases=3 Bus1=227651716.1.2.3 Bus2=55327851.1.2.3 LineCode=750_CLP_3PH_12KV_3 Length=0.227212 units=km
New Line.ND55327851$M5303902 phases=2 Bus1=55327851.1.3 Bus2=227651633.1.3 LineCode=1/0_CLP_2PH_12KV_2 Length=0.001696 units=km
New Line.ND55327851$2319691E phases=3 Bus1=55327851.1.2.3 Bus2=55274514.1.2.3 LineCode=1000_CLP_3PH_12KV_3 Length=0.166816 units=km
New Line.ND69709481$1496210E phases=2 Bus1=69709481.2.3 Bus2=69709468.2.3 LineCode=6_CU_3PH_12KV_2 Length=0.054064 units=km
New Line.4217393E$GS1748-2 phases=3 Bus1=55302631.1.2.3 Bus2=55302468.1.2.3 LineCode=750_JCN_3PH_12KV_3 Length=0.081911 units=km
New Line.716480H$ND55274638 phases=2 Bus1=55306413.1.2 Bus2=55274616.1.2 LineCode=1/0_AL_2PH_12KV_2 Length=0.052957 units=km
New Line.ND135705632$GS1748-1 phases=3 Bus1=55302476.1.2.3 Bus2=135705632.1.2.3 LineCode=750_CLP_3PH_12KV_3 Length=0.0055 units=km
New Line.ND55327940$ND299257465 phases=3 Bus1=55327940.1.2.3 Bus2=299257465.1.2.3 LineCode=1/0_ATW_3PH_12KV_3 Length=0.02816 units=km
New Line.ND55350158$ND55327795 phases=3 Bus1=55350158.1.2.3 Bus2=55327795.1.2.3 LineCode=1/0_ATW_3PH_12KV_3 Length=0.033294 units=km
New Line.ND55327795$4680838E phases=2 Bus1=55327795.1.2 Bus2=55273879.1.2 LineCode=1/0_ATW_2PH_12KV_2 Length=0.015877 units=km
New Line.ND55328093$1484346E phases=2 Bus1=55328093.1.3 Bus2=55273804.1.3 LineCode=1/0_ATW_2PH_12KV_2 Length=0.02334 units=km
New Line.ND185630118$ND185509452 phases=3 Bus1=185630118.1.2.3 Bus2=185509452.1.2.3 LineCode=2/0_CU_3PH_12KV_3 Length=0.034506 units=km
New Line.BF06175$ND185509452 phases=2 Bus1=185509452.2.3 Bus2=185509423.2.3 LineCode=1/0_ACSR_2PH_12KV_2 Length=0.001383 units=km
New Line.ND185509452$2060226E phases=3 Bus1=185509452.1.2.3 Bus2=55274094.1.2.3 LineCode=2/0_CU_3PH_12KV_3 Length=0.077361 units=km
New Line.2060226E$ND55327789 phases=3 Bus1=55274094.1.2.3 Bus2=55327789.1.2.3 LineCode=2/0_CU_3PH_12KV_3 Length=0.086885 units=km
New Line.BF06175$ND185509566 phases=2 Bus1=185509424.2.3 Bus2=185509566.2.3 LineCode=1/0_ACSR_2PH_12KV_2 Length=0.00841 units=km
New Line.210854E$1497055E phases=3 Bus1=49303939.1.2.3 Bus2=185630234.1.2.3 LineCode=1/0_ACSR_3PH_12KV_3 Length=0.134231 units=km
New Line.ND55327789$ND294734429 phases=3 Bus1=55327789.1.2.3 Bus2=294734383.1.2.3 LineCode=2/0_CU_3PH_12KV_3 Length=0.011047 units=km
New Line.2060224ET$ND55327789 phases=3 Bus1=55327789.1.2.3 Bus2=55327177.1.2.3 LineCode=4_CU_3PH_12KV_3 Length=0.003478 units=km
New Line.1108324E$ND185509566 phases=2 Bus1=185509566.2.3 Bus2=49285903.2.3 LineCode=1/0_ACSR_2PH_12KV_2 Length=0.015051 units=km
New Line.ND185509566$ND49306185 phases=2 Bus1=185509566.2.3 Bus2=49306185.2.3 LineCode=1/0_ACSR_2PH_12KV_2 Length=0.083187 units=km
New Line.ND49306220$210854E phases=3 Bus1=185630234.1.2.3 Bus2=49306220.1.2.3 LineCode=1/0_ACSR_3PH_12KV_3 Length=0.042205 units=km
New Line.ND49306220$210856E phases=3 Bus1=49306220.1.2.3 Bus2=185630285.1.2.3 LineCode=1/0_ACSR_3PH_12KV_3 Length=0.044476 units=km
New Line.ND49306185$1108329E phases=2 Bus1=49306185.2.3 Bus2=49285853.2.3 LineCode=1/0_ACSR_2PH_12KV_2 Length=0.037421 units=km
New Line.ND49306185$1108332E phases=2 Bus1=49306185.2.3 Bus2=49285878.2.3 LineCode=1/0_ACSR_2PH_12KV_2 Length=0.075583 units=km
New Line.ND49306220$901638E phases=2 Bus1=49306220.1.2 Bus2=49285928.1.2 LineCode=1/0_ACSR_2PH_12KV_2 Length=0.091758 units=km
New Line.ND49306220$901640E phases=2 Bus1=49306220.1.3 Bus2=49305499.1.3 LineCode=1/0_ACSR_2PH_12KV_2 Length=0.046993 units=km
New Line.2060224ET$1108317E phases=3 Bus1=55327176.1.2.3 Bus2=55274146.1.2.3 LineCode=4_ACSR_3PH_12KV_3 Length=0.019238 units=km
New Line.901638E$210868E phases=2 Bus1=49285928.1.2 Bus2=49284962.1.2 LineCode=1/0_ACSR_2PH_12KV_2 Length=0.056158 units=km
New Line.1108329E$1108335E phases=2 Bus1=49285853.2.3 Bus2=49285828.2.3 LineCode=1/0_ACSR_2PH_12KV_2 Length=0.087217 units=km
New Line.901640E$901641E phases=2 Bus1=49305499.1.3 Bus2=49305474.1.3 LineCode=1/0_ACSR_2PH_12KV_2 Length=0.138438 units=km
New Line.210856E$ND49306174 phases=3 Bus1=185630285.1.2.3 Bus2=49306174.1.2.3 LineCode=1/0_ACSR_3PH_12KV_3 Length=0.044729 units=km
New Line.1108317E$1108318E phases=2 Bus1=55274146.2.3 Bus2=55274171.2.3 LineCode=4_ACSR_2PH_12KV_2 Length=0.03988 units=km
New Line.2319691E$ND55327992 phases=3 Bus1=55274513.1.2.3 Bus2=55327992.1.2.3 LineCode=336_ACSR_3PH_12KV_3 Length=0.005923 units=km
New Line.ND49306174$210858E phases=3 Bus1=49306174.1.2.3 Bus2=49284937.1.2.3 LineCode=1/0_ACSR_3PH_12KV_3 Length=0.142777 units=km
New Line.ND49306174$2141607E phases=2 Bus1=49306174.1.2 Bus2=49285953.1.2 LineCode=1/0_ACSR_2PH_12KV_2 Length=0.089931 units=km
New Line.ND49306174$210872E phases=2 Bus1=49306174.2.3 Bus2=49285978.2.3 LineCode=1/0_ACSR_2PH_12KV_2 Length=0.053217 units=km
New Line.1108318E$1108321E phases=2 Bus1=55274171.2.3 Bus2=55274121.2.3 LineCode=4_ACSR_2PH_12KV_2 Length=0.156867 units=km
New Line.ND55327992$4616921E phases=3 Bus1=55327992.1.2.3 Bus2=55306473.1.2.3 LineCode=336_ACSR_3PH_12KV_3 Length=0.005923 units=km
New Line.2319691ET$ND55327992 phases=3 Bus1=55327992.1.2.3 Bus2=55327226.1.2.3 LineCode=4_CU_3PH_12KV_3 Length=0.005923 units=km
New Line.2141607E$4855404E phases=2 Bus1=49285953.1.2 Bus2=185630327.1.2 LineCode=1/0_ACSR_2PH_12KV_2 Length=0.057299 units=km
New Line.210872E$210873E phases=2 Bus1=49285978.2.3 Bus2=49286003.2.3 LineCode=1/0_ACSR_2PH_12KV_2 Length=0.045655 units=km
New Line.4616921E$ND55328064 phases=3 Bus1=55306473.1.2.3 Bus2=55328064.1.2.3 LineCode=336_ACSR_3PH_12KV_3 Length=0.026927 units=km
New Line.2319691ET$1266981E phases=3 Bus1=55327227.1.2.3 Bus2=55274430.1.2.3 LineCode=1/0_ACSR_3PH_12KV_3 Length=0.034564 units=km
New Line.ND55328064$4679406E phases=3 Bus1=55328064.1.2.3 Bus2=55274661.1.2.3 LineCode=336_ACSR_3PH_12KV_3 Length=0.043297 units=km
New Line.ND55328064$729055H phases=3 Bus1=55328064.1.2.3 Bus2=55306444.1.2.3 LineCode=336_ACSR_3PH_12KV_3 Length=0.074166 units=km
New Line.1266981E$4587325E phases=3 Bus1=55274430.1.2.3 Bus2=55274455.1.2.3 LineCode=653_ACSR_3PH_12KV_3 Length=0.040885 units=km
New Line.4679406E$817103E phases=3 Bus1=55274661.1.2.3 Bus2=55274690.1.2.3 LineCode=336_ACSR_3PH_12KV_3 Length=0.048936 units=km
New Line.729055H$ND55327675 phases=3 Bus1=55306444.1.2.3 Bus2=55327675.1.2.3 LineCode=336_ACSR_3PH_12KV_3 Length=0.034261 units=km
New Line.4587325E$4835629E phases=3 Bus1=55274455.1.2.3 Bus2=266536417.1.2.3 LineCode=653_ACSR_3PH_12KV_3 Length=0.009392 units=km
New Line.817103E$817102E phases=3 Bus1=55274690.1.2.3 Bus2=55325840.1.2.3 LineCode=336_ACSR_3PH_12KV_3 Length=0.049901 units=km
New Line.ND55327675$ND55350635 phases=3 Bus1=55327675.1.2.3 Bus2=55350635.1.2.3 LineCode=336_ACSR_3PH_12KV_3 Length=0.041537 units=km
New Line.ND55350635$4321848E phases=3 Bus1=55350635.1.2.3 Bus2=55324335.1.2.3 LineCode=1/0_ACSR_3PH_12KV_3 Length=0.037445 units=km
New Line.817102E$795530E phases=3 Bus1=55325840.1.2.3 Bus2=55325811.1.2.3 LineCode=336_ACSR_3PH_12KV_3 Length=0.257722 units=km
New Line.ND55350635$729056H phases=3 Bus1=55350635.1.2.3 Bus2=55325923.1.2.3 LineCode=336_ACSR_3PH_12KV_3 Length=0.001477 units=km
New Line.4835629E$ND55349737 phases=3 Bus1=266536417.1.2.3 Bus2=55349737.1.2.3 LineCode=653_ACSR_3PH_12KV_3 Length=0.000774 units=km
New Line.729056H$1426567E phases=3 Bus1=55325923.1.2.3 Bus2=225246101.1.2.3 LineCode=336_ACSR_3PH_12KV_3 Length=0.070713 units=km
New Line.ND55349737$1496211E phases=3 Bus1=55349737.1.2.3 Bus2=55274480.1.2.3 LineCode=653_ACSR_3PH_12KV_3 Length=0.013776 units=km
New Line.4321848E$1307964E phases=3 Bus1=55324335.1.2.3 Bus2=55274560.1.2.3 LineCode=1/0_ACSR_3PH_12KV_3 Length=0.014115 units=km
New Line.ND55349737$1496212E phases=2 Bus1=55349737.1.3 Bus2=55324415.1.3 LineCode=653_ACSR_2PH_12KV_2 Length=0.049334 units=km
New Line.795530E$ND55350403 phases=3 Bus1=55325811.1.2.3 Bus2=55350403.1.2.3 LineCode=336_ACSR_3PH_12KV_3 Length=0.055916 units=km
New Line.1426567E$RCS0484 phases=3 Bus1=225246101.1.2.3 Bus2=50215391.1.2.3 LineCode=336_ACSR_3PH_12KV_3 Length=0.02565 units=km
New Line.ND55350403$795528E phases=3 Bus1=55350403.1.2.3 Bus2=55274719.1.2.3 LineCode=336_ACSR_3PH_12KV_3 Length=0.058611 units=km
New Line.1496211E$716477H phases=3 Bus1=55274480.1.2.3 Bus2=55306500.1.2.3 LineCode=1/0_ACSR_3PH_12KV_3 Length=0.050398 units=km
New Line.ND55350403$795529E phases=3 Bus1=55350403.1.2.3 Bus2=55325779.1.2.3 LineCode=4_CU_3PH_12KV_3 Length=0.055916 units=km
New Line.795528E$ND55328099 phases=3 Bus1=55274719.1.2.3 Bus2=55328099.1.2.3 LineCode=336_ACSR_3PH_12KV_3 Length=0.076397 units=km
New Line.716477H$ND69709481 phases=3 Bus1=55306500.1.2.3 Bus2=69709481.1.2.3 LineCode=1/0_ACSR_3PH_12KV_3 Length=0.03571 units=km
New Line.ND55328099$ND209355503 phases=3 Bus1=55328099.1.2.3 Bus2=209355503.1.2.3 LineCode=336_ACSR_3PH_12KV_3 Length=0.045319 units=km
New Line.ND69709481$4835630E phases=3 Bus1=69709481.1.2.3 Bus2=266536455.1.2.3 LineCode=1/0_ACSR_3PH_12KV_3 Length=0.036886 units=km
New Line.ND55328099$4217393E phases=3 Bus1=55328099.1.2.3 Bus2=55302630.1.2.3 LineCode=336_ACSR_3PH_12KV_3 Length=0.033138 units=km
New Line.795525E$ND55328099 phases=4 Bus1=55328099.0.1.2.3 Bus2=55327196.0.1.2.3 LineCode=1/0_ACSR_3PH_1/0_ACSR_N_12KV_4 Length=0.007275 units=km
New Line.4835630E$716479H phases=3 Bus1=266536455.1.2.3 Bus2=55274505.1.2.3 LineCode=1/0_ACSR_3PH_12KV_3 Length=0.028982 units=km
New Line.ND209355503$806031H phases=3 Bus1=209355503.1.2.3 Bus2=55325869.1.2.3 LineCode=6_CU_3PH_12KV_3 Length=0.099898 units=km
New Line.795525E$1542359E phases=4 Bus1=55327197.0.1.2.3 Bus2=55275073.0.1.2.3 LineCode=1/0_ACSR_3PH_1/0_ACSR_N_12KV_4 Length=0.026753 units=km
New Line.716479H$716480H phases=3 Bus1=55274505.1.2.3 Bus2=55306412.1.2.3 LineCode=1/0_ACSR_3PH_12KV_3 Length=0.036748 units=km
New Line.806031H$ND55350738 phases=3 Bus1=55325869.1.2.3 Bus2=55350738.1.2.3 LineCode=6_CU_3PH_12KV_3 Length=0.047494 units=km
New Line.ND55350738$1239335E phases=3 Bus1=55350738.1.2.3 Bus2=55274748.1.2.3 LineCode=6_CU_3PH_12KV_3 Length=0.024712 units=km
New Line.1542359E$1683806E phases=4 Bus1=55275073.0.1.2.3 Bus2=55275098.0.1.2.3 LineCode=1/0_ACSR_3PH_1/0_ACSR_N_12KV_4 Length=0.018443 units=km
New Line.1497067E$ND55350738 phases=2 Bus1=55350738.1.2 Bus2=55326966.1.2 LineCode=4_CU_2PH_12KV_2 Length=0.022874 units=km
New Line.1683806E$1542358E phases=4 Bus1=55275098.0.1.2.3 Bus2=55275123.0.1.2.3 LineCode=1/0_ACSR_3PH_1/0_ACSR_N_12KV_4 Length=0.028117 units=km
New Line.1239335E$ND55327845 phases=3 Bus1=55274748.1.2.3 Bus2=55327845.1.2.3 LineCode=6_CU_3PH_12KV_3 Length=0.093756 units=km
New Line.1497067E$4766853E phases=2 Bus1=55326965.1.2 Bus2=141925821.1.2 LineCode=6_CU_2PH_12KV_2 Length=0.022874 units=km
New Line.1542358E$1542357E phases=4 Bus1=55275123.0.1.2.3 Bus2=55275148.0.1.2.3 LineCode=1/0_ACSR_3PH_1/0_ACSR_N_12KV_4 Length=0.046744 units=km
New Line.689377E$ND55327845 phases=3 Bus1=55327845.1.2.3 Bus2=55326976.1.2.3 LineCode=4_ACSR_3PH_12KV_3 Length=0.022156 units=km
New Line.ND55327845$4809140E phases=3 Bus1=55327845.1.2.3 Bus2=55327416.1.2.3 LineCode=6_CU_3PH_12KV_3 Length=0.04255 units=km
New Line.935717E$ND185124697 phases=2 Bus1=49285591.2.3 Bus2=-77777749285591.2.3 LineCode=1/0_ACSR_2PH_12KV_2 Length=0.046763 units=km
New Line.961422E$ND185124774 phases=2 Bus1=49285441.2.3 Bus2=-77777749285441.2.3 LineCode=1/0_ACSR_2PH_12KV_2 Length=0.03343 units=km
New Line.741949E$ND238933402 phases=2 Bus1=55324776.1.3 Bus2=-77777755324776.1.3 LineCode=1/0_ACSR_2PH_12KV_2 Length=0.026325 units=km
New Line.1108324E$ND238836317 phases=2 Bus1=49285903.2.3 Bus2=-77777749285903.2.3 LineCode=1/0_ACSR_2PH_12KV_2 Length=0.050922 units=km
New Line.1108335E$ND238836373 phases=2 Bus1=49285828.2.3 Bus2=-77777749285828.2.3 LineCode=1/0_ACSR_2PH_12KV_2 Length=0.0396 units=km
New Line.210873E$ND238836261 phases=2 Bus1=49286003.2.3 Bus2=-77777749286003.2.3 LineCode=1/0_ACSR_2PH_12KV_2 Length=0.02427 units=km
New Line.GS1748-3$J993-4P phases=3 Bus1=55302484.1.2.3 Bus2=55306625.1.2.3 LineCode=1/0_CLP_3PH_12KV_3 Length=0.137931 units=km
New Line.RCS4818-1CL$ND135705632 phases=3 Bus1=135705632.1.2.3 Bus2=135705524.1.2.3 LineCode=750_CLP_3PH_12KV_3 Length=0.039388 units=km
New Line.V5426993PT$ND135705632 phases=1 Bus1=135705632.1 Bus2=135705614.1 LineCode=1/0_CLP_1PH_12KV_1 Length=0.002805 units=km
New Line.1107548E$GS1748-4 phases=3 Bus1=55302492.1.2.3 Bus2=55275444.1.2.3 LineCode=350_CLP_3PH_12KV_3 Length=0.051092 units=km
New Line.4345849E$55327684 phases=3 Bus1=55326340.1.2.3 Bus2=55327686.1.2.3 LineCode=2_CLP_3PH_12KV_3 Length=0.003674 units=km
New Line.B5426994-2$J993-3P phases=3 Bus1=55306617.1.2.3 Bus2=55326254.1.2.3 LineCode=1/0_CLP_3PH_12KV_3 Length=0.097843 units=km
New Line.55327684$P5435821-A phases=3 Bus1=55327687.1.2.3 Bus2=151315596.1.2.3 LineCode=2_CLP_3PH_12KV_3 Length=0.001611 units=km
New Line.J993-2P$ND55303197 phases=3 Bus1=55306633.1.2.3 Bus2=55303175.1.2.3 LineCode=1/0_CLP_3PH_12KV_3 Length=0.260881 units=km
New Line.90318800$P5435821-B phases=3 Bus1=151315579.1.2.3 Bus2=90318803.1.2.3 LineCode=2_CLP_3PH_12KV_3 Length=0.001417 units=km
New Line.1628452E$J042A-2P phases=2 Bus1=55325323.1.3 Bus2=55325354.1.3 LineCode=2_AL_2PH_12KV_2 Length=0.003329 units=km
New Line.ND55351323$90318800 phases=3 Bus1=90318802.1.2.3 Bus2=55351323.1.2.3 LineCode=2_CLP_3PH_12KV_3 Length=0.005605 units=km
New Line.B5169253-2$1747973E phases=2 Bus1=55325310.1.3 Bus2=55275939.1.3 LineCode=2_AL_2PH_12KV_2 Length=0.058621 units=km
New Line.ND55351323$1542352E phases=3 Bus1=55351323.1.2.3 Bus2=55326327.1.2.3 LineCode=2_CLP_3PH_12KV_3 Length=0.10259 units=km
New Line.ND55351323$ND55350560 phases=3 Bus1=55351323.1.2.3 Bus2=55350560.1.2.3 LineCode=2_CLP_3PH_12KV_3 Length=0.008181 units=km
...

! Switches
New Line.148983769$148983777 phases=3 Bus1=148983745.1.2.3 Bus2=148983746.1.2.3 switch=y r1=0.001 x1=0.001 r0=0.001 x0=0.001 Length=0.001 units=km
New Line.148983777$GS5700-3 phases=3 Bus1=148983746.1.2.3 Bus2=148983752.1.2.3 switch=y r1=0.001 x1=0.001 r0=0.001 x0=0.001 Length=0.001 units=km
New Line.GS5700-3$GS5700-4 phases=3 Bus1=148983752.1.2.3 Bus2=148983758.1.2.3 switch=y r1=0.001 x1=0.001 r0=0.001 x0=0.001 Length=0.001 units=km
New Line.GS5700-4$148983801 phases=3 Bus1=148983758.1.2.3 Bus2=148983764.1.2.3 switch=y r1=0.001 x1=0.001 r0=0.001 x0=0.001 Length=0.001 units=km
New Line.165017316 phases=3 Bus1=165017318.1.2.3 Bus2=165017319.1.2.3 switch=y r1=0.001 x1=0.001 r0=0.001 x0=0.001 Length=0.001 units=km
New Line.PME1256-4$PME1256-2 phases=3 Bus1=55305680.1.2.3 Bus2=55305679.1.2.3 switch=y r1=0.001 x1=0.001 r0=0.001 x0=0.001 Length=0.001 units=km
New Line.55274394$P5303802 phases=3 Bus1=55274387.1.2.3 Bus2=55274388.1.2.3 switch=y r1=0.001 x1=0.001 r0=0.001 x0=0.001 Length=0.001 units=km
New Line.55306508$55306524 phases=3 Bus1=55306528.1.2.3 Bus2=55306512.1.2.3 switch=y r1=0.001 x1=0.001 r0=0.001 x0=0.001 Length=0.001 units=km
New Line.55306524$55306516 phases=3 Bus1=55306528.1.2.3 Bus2=55306520.1.2.3 switch=y r1=0.001 x1=0.001 r0=0.001 x0=0.001 Length=0.001 units=km
New Line.GS4497-5$165162446 phases=3 Bus1=165162401.1.2.3 Bus2=165162395.1.2.3 switch=y r1=0.001 x1=0.001 r0=0.001 x0=0.001 Length=0.001 units=km
New Line.210032464 phases=3 Bus1=210032466.1.2.3 Bus2=210032467.1.2.3 switch=y r1=0.001 x1=0.001 r0=0.001 x0=0.001 Length=0.001 units=km
New Line.GS4497-4$GS4497-5 phases=3 Bus1=165162395.1.2.3 Bus2=165162389.1.2.3 switch=y r1=0.001 x1=0.001 r0=0.001 x0=0.001 Length=0.001 units=km
New Line.GS4497-3$GS4497-4 phases=3 Bus1=165162389.1.2.3 Bus2=165162383.1.2.3 switch=y r1=0.001 x1=0.001 r0=0.001 x0=0.001 Length=0.001 units=km
New Line.165162406$GS4497-3 phases=3 Bus1=165162383.1.2.3 Bus2=165162377.1.2.3 switch=y r1=0.001 x1=0.001 r0=0.001 x0=0.001 Length=0.001 units=km
New Line.165162421$165162406 phases=3 Bus1=165162377.1.2.3 Bus2=165162376.1.2.3 switch=y r1=0.001 x1=0.001 r0=0.001 x0=0.001 Length=0.001 units=km
New Line.210032437 phases=2 Bus1=210032440.1.2 Bus2=210032439.1.2 switch=y r1=0.001 x1=0.001 r0=0.001 x0=0.001 Length=0.001 units=km
New Line.GS4496-3$227651730 phases=3 Bus1=227651701.1.2.3 Bus2=227651695.1.2.3 switch=y r1=0.001 x1=0.001 r0=0.001 x0=0.001 Length=0.001 units=km
New Line.5303804:PME1256-4 phases=3 Bus1=55305679.1.2.3 Bus2=55305697.1.2.3 switch=y r1=0.001 x1=0.001 r0=0.001 x0=0.001 Length=0.001 units=km enabled=false
New Line.5303804:PME1256-1 phases=3 Bus1=55305679.1.2.3 Bus2=55305715.1.2.3 switch=y r1=0.001 x1=0.001 r0=0.001 x0=0.001 Length=0.001 units=km enabled=false
New Line.5202166:GS5700-4 phases=3 Bus1=148983758.1.2.3 Bus2=148983795.1.2.3 switch=y r1=0.001 x1=0.001 r0=0.001 x0=0.001 Length=0.001 units=km enabled=false
New Line.GS4496-2$GS4496-3 phases=3 Bus1=227651695.1.2.3 Bus2=227651689.1.2.3 switch=y r1=0.001 x1=0.001 r0=0.001 x0=0.001 Length=0.001 units=km
New Line.227651714$GS4496-2 phases=3 Bus1=227651689.1.2.3 Bus2=227651688.1.2.3 switch=y r1=0.001 x1=0.001 r0=0.001 x0=0.001 Length=0.001 units=km
New Line.294734409$PDRSR0183-D phases=3 Bus1=294734383.1.2.3 Bus2=294734359.1.2.3 switch=y r1=0.001 x1=0.001 r0=0.001 x0=0.001 Length=0.001 units=km
New Line.294734409$PDRSR0183-C phases=3 Bus1=294734383.1.2.3 Bus2=294734384.1.2.3 switch=y r1=0.001 x1=0.001 r0=0.001 x0=0.001 Length=0.001 units=km
New Line.294734405$PDRSR0183-C phases=3 Bus1=294734366.1.2.3 Bus2=294734365.1.2.3 switch=y r1=0.001 x1=0.001 r0=0.001 x0=0.001 Length=0.001 units=km
New Line.286778285 phases=3 Bus1=286778287.1.2.3 Bus2=286778288.1.2.3 switch=y r1=0.001 x1=0.001 r0=0.001 x0=0.001 Length=0.001 units=km
New Line.55302474$55302466 phases=3 Bus1=55302449.1.2.3 Bus2=55302448.1.2.3 switch=y r1=0.001 x1=0.001 r0=0.001 x0=0.001 Length=0.001 units=km
New Line.55302466$GS1748-3 phases=3 Bus1=55302449.1.2.3 Bus2=55302455.1.2.3 switch=y r1=0.001 x1=0.001 r0=0.001 x0=0.001 Length=0.001 units=km
New Line.55274623$P5093376 phases=3 Bus1=55274616.1.2.3 Bus2=55274617.1.2.3 switch=y r1=0.001 x1=0.001 r0=0.001 x0=0.001 Length=0.001 units=km
New Line.GS1748-3$55302490 phases=3 Bus1=55302455.1.2.3 Bus2=55302461.1.2.3 switch=y r1=0.001 x1=0.001 r0=0.001 x0=0.001 Length=0.001 units=km
New Line.5303804:PME1256-2 phases=3 Bus1=55305706.1.2.3 Bus2=55305680.1.2.3 switch=y r1=0.001 x1=0.001 r0=0.001 x0=0.001 Length=0.001 units=km
New Line.771943E:RCS7811 phases=3 Bus1=237991749.1.2.3 Bus2=237991748.1.2.3 switch=y r1=0.001 x1=0.001 r0=0.001 x0=0.001 Length=0.001 units=km
New Line.5318930:J930-2 phases=3 Bus1=55306527.1.2.3 Bus2=55306528.1.2.3 switch=y r1=0.001 x1=0.001 r0=0.001 x0=0.001 Length=0.001 units=km
New Line.5318930:J930-1 phases=3 Bus1=55306512.1.2.3 Bus2=55306511.1.2.3 switch=y r1=0.001 x1=0.001 r0=0.001 x0=0.001 Length=0.001 units=km
New Line.5318930:J930-3 phases=3 Bus1=55306520.1.2.3 Bus2=55306519.1.2.3 switch=y r1=0.001 x1=0.001 r0=0.001 x0=0.001 Length=0.001 units=km
New Line.2060230E:PS0051 phases=3 Bus1=55326889.1.2.3 Bus2=55326888.1.2.3 switch=y r1=0.001 x1=0.001 r0=0.001 x0=0.001 Length=0.001 units=km
New Line.5202166:GS5700-1 phases=3 Bus1=148983771.1.2.3 Bus2=148983745.1.2.3 switch=y r1=0.001 x1=0.001 r0=0.001 x0=0.001 Length=0.001 units=km
New Line.5202166:GS5700-3 phases=3 Bus1=148983752.1.2.3 Bus2=148983787.1.2.3 switch=y r1=0.001 x1=0.001 r0=0.001 x0=0.001 Length=0.001 units=km
New Line.5202166:GS5700-5 phases=3 Bus1=148983764.1.2.3 Bus2=148983803.1.2.3 switch=y r1=0.001 x1=0.001 r0=0.001 x0=0.001 Length=0.001 units=km
New Line.5431036:P5431036-1 phases=3 Bus1=55305634.1.2.3 Bus2=55305635.1.2.3 switch=y r1=0.001 x1=0.001 r0=0.001 x0=0.001 Length=0.001 units=km
New Line.5426823:GS4497-6 phases=3 Bus1=165162448.1.2.3 Bus2=165162401.1.2.3 switch=y r1=0.001 x1=0.001 r0=0.001 x0=0.001 Length=0.001 units=km
New Line.5156361:B5156361-1 phases=2 Bus1=55324229.1.2 Bus2=55324230.1.2 switch=y r1=0.001 x1=0.001 r0=0.001 x0=0.001 Length=0.001 units=km
New Line.5426823:GS4497-5 phases=3 Bus1=165162395.1.2.3 Bus2=165162440.1.2.3 switch=y r1=0.001 x1=0.001 r0=0.001 x0=0.001 Length=0.001 units=km
New Line.5318931:P5318931-A phases=3 Bus1=151315695.1.2.3 Bus2=151315679.1.2.3 switch=y r1=0.001 x1=0.001 r0=0.001 x0=0.001 Length=0.001 units=km
New Line.5426823:GS4497-4 phases=3 Bus1=165162389.1.2.3 Bus2=165162432.1.2.3 switch=y r1=0.001 x1=0.001 r0=0.001 x0=0.001 Length=0.001 units=km
New Line.5318931:P5318931-B phases=3 Bus1=151315679.1.2.3 Bus2=151315678.1.2.3 switch=y r1=0.001 x1=0.001 r0=0.001 x0=0.001 Length=0.001 units=km
New Line.5318931:P5318931-T phases=3 Bus1=151315679.1.2.3 Bus2=151315687.1.2.3 switch=y r1=0.001 x1=0.001 r0=0.001 x0=0.001 Length=0.001 units=km
New Line.5426823:GS4497-3 phases=3 Bus1=165162383.1.2.3 Bus2=165162416.1.2.3 switch=y r1=0.001 x1=0.001 r0=0.001 x0=0.001 Length=0.001 units=km
New Line.5426823:GS4497-2 phases=3 Bus1=165162377.1.2.3 Bus2=165162408.1.2.3 switch=y r1=0.001 x1=0.001 r0=0.001 x0=0.001 Length=0.001 units=km
New Line.5426828:P5426828-1 phases=2 Bus1=55276543.2.3 Bus2=55276544.2.3 switch=y r1=0.001 x1=0.001 r0=0.001 x0=0.001 Length=0.001 units=km
New Line.5426823:GS4497-1 phases=3 Bus1=165162376.1.2.3 Bus2=165162424.1.2.3 switch=y r1=0.001 x1=0.001 r0=0.001 x0=0.001 Length=0.001 units=km
New Line.5439015:P5439015-1 phases=3 Bus1=55326569.1.2.3 Bus2=55326570.1.2.3 switch=y r1=0.001 x1=0.001 r0=0.001 x0=0.001 Length=0.001 units=km
New Line.5318932:P5318932-1 phases=2 Bus1=167186896.1.2 Bus2=167186897.1.2 switch=y r1=0.001 x1=0.001 r0=0.001 x0=0.001 Length=0.001 units=km
New Line.5426831:P5426831-1 phases=3 Bus1=55276591.1.2.3 Bus2=55276592.1.2.3 switch=y r1=0.001 x1=0.001 r0=0.001 x0=0.001 Length=0.001 units=km
New Line.5426835:GS4496-4 phases=3 Bus1=227651732.1.2.3 Bus2=227651701.1.2.3 switch=y r1=0.001 x1=0.001 r0=0.001 x0=0.001 Length=0.001 units=km
New Line.5439014:P5439014-1 phases=3 Bus1=55324529.1.2.3 Bus2=55324530.1.2.3 switch=y r1=0.001 x1=0.001 r0=0.001 x0=0.001 Length=0.001 units=km
New Line.5139133:BS4128-1 phases=2 Bus1=55274196.1.3 Bus2=55274197.1.3 switch=y r1=0.001 x1=0.001 r0=0.001 x0=0.001 Length=0.001 units=km
New Line.5703282:B5703282-1 phases=2 Bus1=227651910.1.2 Bus2=227651911.1.2 switch=y r1=0.001 x1=0.001 r0=0.001 x0=0.001 Length=0.001 units=km
New Line.4462648E:PDRSR0183-D phases=3 Bus1=294734359.1.2.3 Bus2=294734360.1.2.3 switch=y r1=0.001 x1=0.001 r0=0.001 x0=0.001 Length=0.001 units=km
New Line.4462648E:PDRSR0183-C phases=3 Bus1=294734384.1.2.3 Bus2=294734366.1.2.3 switch=y r1=0.001 x1=0.001 r0=0.001 x0=0.001 Length=0.001 units=km enabled=false
New Line.2319691E:2319691ET phases=3 Bus1=55327226.1.2.3 Bus2=55327227.1.2.3 switch=y r1=0.001 x1=0.001 r0=0.001 x0=0.001 Length=0.001 units=km
New Line.890720E:890720E phases=3 Bus1=55273720.1.2.3 Bus2=55273719.1.2.3 switch=y r1=0.001 x1=0.001 r0=0.001 x0=0.001 Length=0.001 units=km
New Line.771935E:771935E phases=3 Bus1=55325433.1.2.3 Bus2=55325434.1.2.3 switch=y r1=0.001 x1=0.001 r0=0.001 x0=0.001 Length=0.001 units=km
New Line.771937E:771937E phases=3 Bus1=55273774.1.2.3 Bus2=55273775.1.2.3 switch=y r1=0.001 x1=0.001 r0=0.001 x0=0.001 Length=0.001 units=km
New Line.771942E:771942 phases=3 Bus1=55305620.1.2.3 Bus2=55305621.1.2.3 switch=y r1=0.001 x1=0.001 r0=0.001 x0=0.001 Length=0.001 units=km
New Line.2205649E:2205649E phases=3 Bus1=55273995.1.2.3 Bus2=55273996.1.2.3 switch=y r1=0.001 x1=0.001 r0=0.001 x0=0.001 Length=0.001 units=km
New Line.4152471E:4152471E phases=3 Bus1=55276510.1.2.3 Bus2=55276509.1.2.3 switch=y r1=0.001 x1=0.001 r0=0.001 x0=0.001 Length=0.001 units=km
New Line.2060229E:2060229E phases=3 Bus1=55274179.1.2.3 Bus2=55274180.1.2.3 switch=y r1=0.001 x1=0.001 r0=0.001 x0=0.001 Length=0.001 units=km
New Line.2319691E:2319691E phases=3 Bus1=55274514.1.2.3 Bus2=55274513.1.2.3 switch=y r1=0.001 x1=0.001 r0=0.001 x0=0.001 Length=0.001 units=km
New Line.795529E:795529E phases=3 Bus1=55325779.1.2.3 Bus2=55325780.1.2.3 switch=y r1=0.001 x1=0.001 r0=0.001 x0=0.001 Length=0.001 units=km
New Line.4217393E:4217393E phases=3 Bus1=55302630.1.2.3 Bus2=55302631.1.2.3 switch=y r1=0.001 x1=0.001 r0=0.001 x0=0.001 Length=0.001 units=km
New Line.716480H:716480H phases=3 Bus1=55306412.1.2.3 Bus2=55306413.1.2.3 switch=y r1=0.001 x1=0.001 r0=0.001 x0=0.001 Length=0.001 units=km
New Line.5426835:GS4496-3 phases=3 Bus1=227651695.1.2.3 Bus2=227651724.1.2.3 switch=y r1=0.001 x1=0.001 r0=0.001 x0=0.001 Length=0.001 units=km
New Line.5426835:GS4496-2 phases=3 Bus1=227651689.1.2.3 Bus2=227651708.1.2.3 switch=y r1=0.001 x1=0.001 r0=0.001 x0=0.001 Length=0.001 units=km
New Line.5426835:GS4496-1 phases=3 Bus1=227651688.1.2.3 Bus2=227651716.1.2.3 switch=y r1=0.001 x1=0.001 r0=0.001 x0=0.001 Length=0.001 units=km
New Line.5202019:P5202019-1 phases=3 Bus1=55276639.1.2.3 Bus2=55276640.1.2.3 switch=y r1=0.001 x1=0.001 r0=0.001 x0=0.001 Length=0.001 units=km
New Line.5380719:P5380719-1 phases=3 Bus1=69709335.1.2.3 Bus2=69709336.1.2.3 switch=y r1=0.001 x1=0.001 r0=0.001 x0=0.001 Length=0.001 units=km
New Line.5139135:B5139135-1 phases=2 Bus1=55274246.1.3 Bus2=55274247.1.3 switch=y r1=0.001 x1=0.001 r0=0.001 x0=0.001 Length=0.001 units=km
New Line.5139134:B5139134-2 phases=2 Bus1=55274327.1.3 Bus2=55274319.1.3 switch=y r1=0.001 x1=0.001 r0=0.001 x0=0.001 Length=0.001 units=km
New Line.5169549:P5169549-1 phases=3 Bus1=55274762.1.2.3 Bus2=55274763.1.2.3 switch=y r1=0.001 x1=0.001 r0=0.001 x0=0.001 Length=0.001 units=km
New Line.5426993:GS1748-2 phases=3 Bus1=55302468.1.2.3 Bus2=55302449.1.2.3 switch=y r1=0.001 x1=0.001 r0=0.001 x0=0.001 Length=0.001 units=km
New Line.5426993:GS1748-1 phases=3 Bus1=55302448.1.2.3 Bus2=55302476.1.2.3 switch=y r1=0.001 x1=0.001 r0=0.001 x0=0.001 Length=0.001 units=km
New Line.5426993:GS1748-3 phases=3 Bus1=55302455.1.2.3 Bus2=55302484.1.2.3 switch=y r1=0.001 x1=0.001 r0=0.001 x0=0.001 Length=0.001 units=km
New Line.771932E:101820763 phases=3 Bus1=101820765.1.2.3 Bus2=101820766.1.2.3 switch=y r1=0.001 x1=0.001 r0=0.001 x0=0.001 Length=0.001 units=km
New Line.890721E:105898412 phases=2 Bus1=105898414.2.3 Bus2=105898415.2.3 switch=y r1=0.001 x1=0.001 r0=0.001 x0=0.001 Length=0.001 units=km
New Line.771934E:101820718 phases=3 Bus1=101820720.1.2.3 Bus2=101820721.1.2.3 switch=y r1=0.001 x1=0.001 r0=0.001 x0=0.001 Length=0.001 units=km
New Line.890722E:49285598 phases=2 Bus1=49285600.2.3 Bus2=49285601.2.3 switch=y r1=0.001 x1=0.001 r0=0.001 x0=0.001 Length=0.001 units=km
New Line.890732E:49305431 phases=2 Bus1=49305433.2.3 Bus2=49305434.2.3 switch=y r1=0.001 x1=0.001 r0=0.001 x0=0.001 Length=0.001 units=km
New Line.890730E:49285623 phases=2 Bus1=49285625.2.3 Bus2=49285626.2.3 switch=y r1=0.001 x1=0.001 r0=0.001 x0=0.001 Length=0.001 units=km
New Line.1362566E:55273748 phases=3 Bus1=55273750.1.2.3 Bus2=55273751.1.2.3 switch=y r1=0.001 x1=0.001 r0=0.001 x0=0.001 Length=0.001 units=km
New Line.771936E:55273936 phases=3 Bus1=55273938.1.2.3 Bus2=55273939.1.2.3 switch=y r1=0.001 x1=0.001 r0=0.001 x0=0.001 Length=0.001 units=km
New Line.890726E:49285523 phases=2 Bus1=49285525.2.3 Bus2=49285526.2.3 switch=y r1=0.001 x1=0.001 r0=0.001 x0=0.001 Length=0.001 units=km
New Line.4678062E:49304765 phases=2 Bus1=49304767.2.3 Bus2=49304768.2.3 switch=y r1=0.001 x1=0.001 r0=0.001 x0=0.001 Length=0.001 units=km
New Line.973293E:49285498 phases=2 Bus1=49285500.2.3 Bus2=49285501.2.3 switch=y r1=0.001 x1=0.001 r0=0.001 x0=0.001 Length=0.001 units=km
New Line.890728E:99867001 phases=2 Bus1=99867003.2.3 Bus2=99867004.2.3 switch=y r1=0.001 x1=0.001 r0=0.001 x0=0.001 Length=0.001 units=km
New Line.935717E:49285573 phases=2 Bus1=49285575.2.3 Bus2=49285576.2.3 switch=y r1=0.001 x1=0.001 r0=0.001 x0=0.001 Length=0.001 units=km
New Line.973291E:49305119 phases=2 Bus1=49305121.2.3 Bus2=49305122.2.3 switch=y r1=0.001 x1=0.001 r0=0.001 x0=0.001 Length=0.001 units=km
New Line.935721E:55325957 phases=2 Bus1=55325959.2.3 Bus2=55325960.2.3 switch=y r1=0.001 x1=0.001 r0=0.001 x0=0.001 Length=0.001 units=km
New Line.961417E:49285473 phases=2 Bus1=49285475.2.3 Bus2=49285476.2.3 switch=y r1=0.001 x1=0.001 r0=0.001 x0=0.001 Length=0.001 units=km
New Line.935720E:55273911 phases=2 Bus1=55273913.2.3 Bus2=55273914.2.3 switch=y r1=0.001 x1=0.001 r0=0.001 x0=0.001 Length=0.001 units=km
New Line.771941E:163078229 phases=3 Bus1=163078231.1.2.3 Bus2=163078232.1.2.3 switch=y r1=0.001 x1=0.001 r0=0.001 x0=0.001 Length=0.001 units=km
New Line.961420E:49285448 phases=2 Bus1=49285450.2.3 Bus2=49285451.2.3 switch=y r1=0.001 x1=0.001 r0=0.001 x0=0.001 Length=0.001 units=km
New Line.741943E:55324422 phases=3 Bus1=55324424.1.2.3 Bus2=55324425.1.2.3 switch=y r1=0.001 x1=0.001 r0=0.001 x0=0.001 Length=0.001 units=km
New Line.961422E:49285423 phases=2 Bus1=49285425.2.3 Bus2=49285426.2.3 switch=y r1=0.001 x1=0.001 r0=0.001 x0=0.001 Length=0.001 units=km
New Line.2280949E:49285785 phases=3 Bus1=49285787.1.2.3 Bus2=49285788.1.2.3 switch=y r1=0.001 x1=0.001 r0=0.001 x0=0.001 Length=0.001 units=km
New Line.935712E:49304890 phases=2 Bus1=49304892.1.3 Bus2=49304893.1.3 switch=y r1=0.001 x1=0.001 r0=0.001 x0=0.001 Length=0.001 units=km
New Line.935713E:49285760 phases=2 Bus1=49285762.1.3 Bus2=49285763.1.3 switch=y r1=0.001 x1=0.001 r0=0.001 x0=0.001 Length=0.001 units=km
New Line.1659734E:49304994 phases=2 Bus1=49304996.2.3 Bus2=49304997.2.3 switch=y r1=0.001 x1=0.001 r0=0.001 x0=0.001 Length=0.001 units=km
New Line.741946E:55273886 phases=3 Bus1=55273888.1.2.3 Bus2=55273889.1.2.3 switch=y r1=0.001 x1=0.001 r0=0.001 x0=0.001 Length=0.001 units=km
New Line.935714E:49284994 phases=2 Bus1=49284996.1.3 Bus2=49284997.1.3 switch=y r1=0.001 x1=0.001 r0=0.001 x0=0.001 Length=0.001 units=km
New Line.4152075E:49304969 phases=2 Bus1=49304971.2.3 Bus2=49304972.2.3 switch=y r1=0.001 x1=0.001 r0=0.001 x0=0.001 Length=0.001 units=km
New Line.1719845E:55273836 phases=3 Bus1=55273838.1.2.3 Bus2=55273839.1.2.3 switch=y r1=0.001 x1=0.001 r0=0.001 x0=0.001 Length=0.001 units=km
New Line.4680838E:55273861 phases=2 Bus1=55273863.1.2 Bus2=55273864.1.2 switch=y r1=0.001 x1=0.001 r0=0.001 x0=0.001 Length=0.001 units=km
New Line.1484346E:55273786 phases=2 Bus1=55273788.1.3 Bus2=55273789.1.3 switch=y r1=0.001 x1=0.001 r0=0.001 x0=0.001 Length=0.001 units=km
New Line.1171553E:55273811 phases=2 Bus1=55273813.1.2 Bus2=55273814.1.2 switch=y r1=0.001 x1=0.001 r0=0.001 x0=0.001 Length=0.001 units=km
New Line.741949E:55324758 phases=2 Bus1=55324760.1.3 Bus2=55324761.1.3 switch=y r1=0.001 x1=0.001 r0=0.001 x0=0.001 Length=0.001 units=km
New Line.953247E:55274049 phases=2 Bus1=55274051.2.3 Bus2=55274052.2.3 switch=y r1=0.001 x1=0.001 r0=0.001 x0=0.001 Length=0.001 units=km
New Line.1108448E:55325470 phases=3 Bus1=55325472.1.2.3 Bus2=55325473.1.2.3 switch=y r1=0.001 x1=0.001 r0=0.001 x0=0.001 Length=0.001 units=km
New Line.953248E:55274024 phases=2 Bus1=55274026.2.3 Bus2=55274027.2.3 switch=y r1=0.001 x1=0.001 r0=0.001 x0=0.001 Length=0.001 units=km
New Line.1108449E:55325445 phases=3 Bus1=55325447.1.2.3 Bus2=55325448.1.2.3 switch=y r1=0.001 x1=0.001 r0=0.001 x0=0.001 Length=0.001 units=km
New Line.2060226E:55274074 phases=3 Bus1=55274076.1.2.3 Bus2=55274077.1.2.3 switch=y r1=0.001 x1=0.001 r0=0.001 x0=0.001 Length=0.001 units=km
New Line.1497055E:49303919 phases=3 Bus1=49303921.1.2.3 Bus2=49303922.1.2.3 switch=y r1=0.001 x1=0.001 r0=0.001 x0=0.001 Length=0.001 units=km
New Line.210854E:185630215 phases=3 Bus1=185630217.1.2.3 Bus2=185630218.1.2.3 switch=y r1=0.001 x1=0.001 r0=0.001 x0=0.001 Length=0.001 units=km
New Line.1108324E:49285885 phases=2 Bus1=49285887.2.3 Bus2=49285888.2.3 switch=y r1=0.001 x1=0.001 r0=0.001 x0=0.001 Length=0.001 units=km
New Line.210856E:185630266 phases=3 Bus1=185630268.1.2.3 Bus2=185630269.1.2.3 switch=y r1=0.001 x1=0.001 r0=0.001 x0=0.001 Length=0.001 units=km
New Line.1108329E:49285835 phases=2 Bus1=49285837.2.3 Bus2=49285838.2.3 switch=y r1=0.001 x1=0.001 r0=0.001 x0=0.001 Length=0.001 units=km
New Line.1108332E:49285860 phases=2 Bus1=49285862.2.3 Bus2=49285863.2.3 switch=y r1=0.001 x1=0.001 r0=0.001 x0=0.001 Length=0.001 units=km
New Line.901638E:49285910 phases=2 Bus1=49285912.1.2 Bus2=49285913.1.2 switch=y r1=0.001 x1=0.001 r0=0.001 x0=0.001 Length=0.001 units=km
New Line.901640E:49305481 phases=2 Bus1=49305483.1.3 Bus2=49305484.1.3 switch=y r1=0.001 x1=0.001 r0=0.001 x0=0.001 Length=0.001 units=km
New Line.1108317E:55274128 phases=3 Bus1=55274130.1.2.3 Bus2=55274131.1.2.3 switch=y r1=0.001 x1=0.001 r0=0.001 x0=0.001 Length=0.001 units=km
New Line.210868E:49284944 phases=2 Bus1=49284946.1.2 Bus2=49284947.1.2 switch=y r1=0.001 x1=0.001 r0=0.001 x0=0.001 Length=0.001 units=km
New Line.1108335E:49285810 phases=2 Bus1=49285812.2.3 Bus2=49285813.2.3 switch=y r1=0.001 x1=0.001 r0=0.001 x0=0.001 Length=0.001 units=km
New Line.901641E:49305456 phases=2 Bus1=49305458.1.3 Bus2=49305459.1.3 switch=y r1=0.001 x1=0.001 r0=0.001 x0=0.001 Length=0.001 units=km
New Line.1108318E:55274153 phases=2 Bus1=55274155.2.3 Bus2=55274156.2.3 switch=y r1=0.001 x1=0.001 r0=0.001 x0=0.001 Length=0.001 units=km
New Line.210858E:49284919 phases=3 Bus1=49284921.1.2.3 Bus2=49284922.1.2.3 switch=y r1=0.001 x1=0.001 r0=0.001 x0=0.001 Length=0.001 units=km
New Line.2141607E:49285935 phases=2 Bus1=49285937.1.2 Bus2=49285938.1.2 switch=y r1=0.001 x1=0.001 r0=0.001 x0=0.001 Length=0.001 units=km
New Line.210872E:49285960 phases=2 Bus1=49285962.2.3 Bus2=49285963.2.3 switch=y r1=0.001 x1=0.001 r0=0.001 x0=0.001 Length=0.001 units=km
New Line.1108321E:55274103 phases=2 Bus1=55274105.2.3 Bus2=55274106.2.3 switch=y r1=0.001 x1=0.001 r0=0.001 x0=0.001 Length=0.001 units=km
New Line.4616921E:55306453 phases=3 Bus1=55306455.1.2.3 Bus2=55306456.1.2.3 switch=y r1=0.001 x1=0.001 r0=0.001 x0=0.001 Length=0.001 units=km
New Line.4855404E:185630330 phases=2 Bus1=185630332.1.2 Bus2=185630333.1.2 switch=y r1=0.001 x1=0.001 r0=0.001 x0=0.001 Length=0.001 units=km
New Line.210873E:49285985 phases=2 Bus1=49285987.2.3 Bus2=49285988.2.3 switch=y r1=0.001 x1=0.001 r0=0.001 x0=0.001 Length=0.001 units=km
New Line.1266981E:55274412 phases=3 Bus1=55274414.1.2.3 Bus2=55274415.1.2.3 switch=y r1=0.001 x1=0.001 r0=0.001 x0=0.001 Length=0.001 units=km
New Line.4679406E:55274641 phases=3 Bus1=55274643.1.2.3 Bus2=55274644.1.2.3 switch=y r1=0.001 x1=0.001 r0=0.001 x0=0.001 Length=0.001 units=km
New Line.729055H:55306424 phases=3 Bus1=55306426.1.2.3 Bus2=55306427.1.2.3 switch=y r1=0.001 x1=0.001 r0=0.001 x0=0.001 Length=0.001 units=km
New Line.4587325E:55274437 phases=3 Bus1=55274439.1.2.3 Bus2=55274440.1.2.3 switch=y r1=0.001 x1=0.001 r0=0.001 x0=0.001 Length=0.001 units=km
New Line.817103E:55274670 phases=3 Bus1=55274672.1.2.3 Bus2=55274673.1.2.3 switch=y r1=0.001 x1=0.001 r0=0.001 x0=0.001 Length=0.001 units=km
New Line.4835629E:266536396 phases=3 Bus1=266536398.1.2.3 Bus2=266536399.1.2.3 switch=y r1=0.001 x1=0.001 r0=0.001 x0=0.001 Length=0.001 units=km
New Line.817102E:55325820 phases=3 Bus1=55325822.1.2.3 Bus2=55325823.1.2.3 switch=y r1=0.001 x1=0.001 r0=0.001 x0=0.001 Length=0.001 units=km
New Line.4321848E:55324317 phases=3 Bus1=55324319.1.2.3 Bus2=55324320.1.2.3 switch=y r1=0.001 x1=0.001 r0=0.001 x0=0.001 Length=0.001 units=km
New Line.795530E:55325791 phases=3 Bus1=55325793.1.2.3 Bus2=55325794.1.2.3 switch=y r1=0.001 x1=0.001 r0=0.001 x0=0.001 Length=0.001 units=km
New Line.729056H:55325903 phases=3 Bus1=55325905.1.2.3 Bus2=55325906.1.2.3 switch=y r1=0.001 x1=0.001 r0=0.001 x0=0.001 Length=0.001 units=km
New Line.1426567E:225246082 phases=3 Bus1=225246084.1.2.3 Bus2=225246085.1.2.3 switch=y r1=0.001 x1=0.001 r0=0.001 x0=0.001 Length=0.001 units=km
New Line.1496211E:55274462 phases=3 Bus1=55274464.1.2.3 Bus2=55274465.1.2.3 switch=y r1=0.001 x1=0.001 r0=0.001 x0=0.001 Length=0.001 units=km
New Line.1307964E:55274542 phases=3 Bus1=55274544.1.2.3 Bus2=55274545.1.2.3 switch=y r1=0.001 x1=0.001 r0=0.001 x0=0.001 Length=0.001 units=km
New Line.1496212E:55324397 phases=2 Bus1=55324399.1.3 Bus2=55324400.1.3 switch=y r1=0.001 x1=0.001 r0=0.001 x0=0.001 Length=0.001 units=km
New Line.795528E:55274699 phases=3 Bus1=55274701.1.2.3 Bus2=55274702.1.2.3 switch=y r1=0.001 x1=0.001 r0=0.001 x0=0.001 Length=0.001 units=km
New Line.716477H:55306482 phases=3 Bus1=55306484.1.2.3 Bus2=55306485.1.2.3 switch=y r1=0.001 x1=0.001 r0=0.001 x0=0.001 Length=0.001 units=km
New Line.4835630E:266536436 phases=3 Bus1=266536438.1.2.3 Bus2=266536439.1.2.3 switch=y r1=0.001 x1=0.001 r0=0.001 x0=0.001 Length=0.001 units=km
New Line.1496210E:69709449 phases=2 Bus1=69709451.2.3 Bus2=69709452.2.3 switch=y r1=0.001 x1=0.001 r0=0.001 x0=0.001 Length=0.001 units=km
New Line.716479H:55274487 phases=3 Bus1=55274489.1.2.3 Bus2=55274490.1.2.3 switch=y r1=0.001 x1=0.001 r0=0.001 x0=0.001 Length=0.001 units=km
New Line.806031H:55325849 phases=3 Bus1=55325851.1.2.3 Bus2=55325852.1.2.3 switch=y r1=0.001 x1=0.001 r0=0.001 x0=0.001 Length=0.001 units=km
New Line.1542359E:55275055 phases=3 Bus1=55275057.1.2.3 Bus2=55275058.1.2.3 switch=y r1=0.001 x1=0.001 r0=0.001 x0=0.001 Length=0.001 units=km
New Line.1239335E:55274728 phases=3 Bus1=55274730.1.2.3 Bus2=55274731.1.2.3 switch=y r1=0.001 x1=0.001 r0=0.001 x0=0.001 Length=0.001 units=km
New Line.1683806E:55275080 phases=3 Bus1=55275082.1.2.3 Bus2=55275083.1.2.3 switch=y r1=0.001 x1=0.001 r0=0.001 x0=0.001 Length=0.001 units=km
New Line.890720E:BF06171 phases=2 Bus1=185124667.2.3 Bus2=185124666.2.3 switch=y r1=0.001 x1=0.001 r0=0.001 x0=0.001 Length=0.001 units=km
New Line.1483924E:BF06172 phases=2 Bus1=215713553.1.3 Bus2=215713552.1.3 switch=y r1=0.001 x1=0.001 r0=0.001 x0=0.001 Length=0.001 units=km
New Line.2060228E:BF07948 phases=3 Bus1=240628800.1.2.3 Bus2=240628801.1.2.3 switch=y r1=0.001 x1=0.001 r0=0.001 x0=0.001 Length=0.001 units=km
New Line.2060227E:BF06175 phases=2 Bus1=185509423.2.3 Bus2=185509424.2.3 switch=y r1=0.001 x1=0.001 r0=0.001 x0=0.001 Length=0.001 units=km
New Line.CAB_890721E:890721E phases=3 Bus1=105898431.1.2.3 Bus2=105898414.1.2.3 switch=y r1=0.001 x1=0.001 r0=0.001 x0=0.001 Length=0.001 units=km
New Line.CAB_890722E:890722E phases=3 Bus1=49285616.1.2.3 Bus2=49285600.1.2.3 switch=y r1=0.001 x1=0.001 r0=0.001 x0=0.001 Length=0.001 units=km
New Line.CAB_890732E:890732E phases=3 Bus1=49305449.1.2.3 Bus2=49305433.1.2.3 switch=y r1=0.001 x1=0.001 r0=0.001 x0=0.001 Length=0.001 units=km
New Line.CAB_890730E:890730E phases=3 Bus1=49285641.1.2.3 Bus2=49285625.1.2.3 switch=y r1=0.001 x1=0.001 r0=0.001 x0=0.001 Length=0.001 units=km
New Line.CAB_771936E:771936E phases=3 Bus1=55273956.1.2.3 Bus2=55273938.1.2.3 switch=y r1=0.001 x1=0.001 r0=0.001 x0=0.001 Length=0.001 units=km
New Line.CAB_890726E:890726E phases=3 Bus1=49285541.1.2.3 Bus2=49285525.1.2.3 switch=y r1=0.001 x1=0.001 r0=0.001 x0=0.001 Length=0.001 units=km
New Line.CAB_890728E:890728E phases=3 Bus1=49285566.1.2.3 Bus2=99867003.1.2.3 switch=y r1=0.001 x1=0.001 r0=0.001 x0=0.001 Length=0.001 units=km
New Line.CAB_973291E:973291E phases=3 Bus1=49305137.1.2.3 Bus2=49305121.1.2.3 switch=y r1=0.001 x1=0.001 r0=0.001 x0=0.001 Length=0.001 units=km
New Line.CAB_961420E:961420E phases=3 Bus1=49285466.1.2.3 Bus2=49285450.1.2.3 switch=y r1=0.001 x1=0.001 r0=0.001 x0=0.001 Length=0.001 units=km
New Line.CAB_935712E:935712E phases=3 Bus1=49304908.1.2.3 Bus2=49304892.1.2.3 switch=y r1=0.001 x1=0.001 r0=0.001 x0=0.001 Length=0.001 units=km
New Line.CAB_953247E:953247E phases=3 Bus1=55274067.1.2.3 Bus2=55274051.1.2.3 switch=y r1=0.001 x1=0.001 r0=0.001 x0=0.001 Length=0.001 units=km
New Line.CAB_771932E:771932E phases=3 Bus1=101820783.1.2.3 Bus2=101820765.1.2.3 switch=y r1=0.001 x1=0.001 r0=0.001 x0=0.001 Length=0.001 units=km
New Line.CAB_771934E:771934E phases=3 Bus1=101820737.1.2.3 Bus2=101820720.1.2.3 switch=y r1=0.001 x1=0.001 r0=0.001 x0=0.001 Length=0.001 units=km
New Line.CAB_1362566E:1362566E phases=3 Bus1=55273766.1.2.3 Bus2=55273750.1.2.3 switch=y r1=0.001 x1=0.001 r0=0.001 x0=0.001 Length=0.001 units=km
New Line.CAB_4678062E:4678062E phases=3 Bus1=49304783.1.2.3 Bus2=49304767.1.2.3 switch=y r1=0.001 x1=0.001 r0=0.001 x0=0.001 Length=0.001 units=km
New Line.CAB_973293E:973293E phases=3 Bus1=49285516.1.2.3 Bus2=49285500.1.2.3 switch=y r1=0.001 x1=0.001 r0=0.001 x0=0.001 Length=0.001 units=km
New Line.CAB_935717E:935717E phases=3 Bus1=49285591.1.2.3 Bus2=49285575.1.2.3 switch=y r1=0.001 x1=0.001 r0=0.001 x0=0.001 Length=0.001 units=km
New Line.CAB_935721E:935721E phases=3 Bus1=55325975.1.2.3 Bus2=55325959.1.2.3 switch=y r1=0.001 x1=0.001 r0=0.001 x0=0.001 Length=0.001 units=km
New Line.CAB_961417E:961417E phases=3 Bus1=49285491.1.2.3 Bus2=49285475.1.2.3 switch=y r1=0.001 x1=0.001 r0=0.001 x0=0.001 Length=0.001 units=km
New Line.CAB_935720E:935720E phases=3 Bus1=55273929.1.2.3 Bus2=55273913.1.2.3 switch=y r1=0.001 x1=0.001 r0=0.001 x0=0.001 Length=0.001 units=km
New Line.CAB_771941E:771941E phases=3 Bus1=163078248.1.2.3 Bus2=163078231.1.2.3 switch=y r1=0.001 x1=0.001 r0=0.001 x0=0.001 Length=0.001 units=km
New Line.CAB_741943E:741943E phases=3 Bus1=55324442.1.2.3 Bus2=55324424.1.2.3 switch=y r1=0.001 x1=0.001 r0=0.001 x0=0.001 Length=0.001 units=km
New Line.CAB_961422E:961422E phases=3 Bus1=49285441.1.2.3 Bus2=49285425.1.2.3 switch=y r1=0.001 x1=0.001 r0=0.001 x0=0.001 Length=0.001 units=km
New Line.CAB_2280949E:2280949E phases=3 Bus1=49285803.1.2.3 Bus2=49285787.1.2.3 switch=y r1=0.001 x1=0.001 r0=0.001 x0=0.001 Length=0.001 units=km
New Line.CAB_935713E:935713E phases=3 Bus1=49285778.1.2.3 Bus2=49285762.1.2.3 switch=y r1=0.001 x1=0.001 r0=0.001 x0=0.001 Length=0.001 units=km
New Line.CAB_1659734E:1659734E phases=3 Bus1=49305012.1.2.3 Bus2=49304996.1.2.3 switch=y r1=0.001 x1=0.001 r0=0.001 x0=0.001 Length=0.001 units=km
...